reduced_networks/ieee8500/41pct/dss/Branches.dss
! Radial Kron-equivalent series elements
new Reactor.kr_1_1678 phases=3 bus1=sourcebus.1.2.3 bus2=hvmv_sub_hsb.1.2.3 rmatrix=[0 | 0 0 | 0 0 0] xmatrix=[14.79830663359505 | -0 14.79830663359505 | -0 -0 14.79830663359505]
new Reactor.kr_2_572 phases=3 bus1=_hvmv_sub_lsb.1.2.3 bus2=d5710794-3_int.1.2.3 rmatrix=[0.004163460770154475 | 0.001084447345436711 0.004123986176976444 | 0.001111033901816856 0.001090151822589795 0.004175880398436444] xmatrix=[0.01235104838036289 | 0.005342383765059878 0.01268958529024682 | 0.00479152757606391 0.005654332174959866 0.01224584110666893]
new Reactor.kr_3_4 phases=1 bus1=m1009763.2 bus2=l2673322.2 rmatrix=[0.05388321206658001] xmatrix=[0.03007004088528]
new Reactor.kr_3_1219 phases=3 bus1=m1009763.1.2.3 bus2=l2689691.1.2.3 rmatrix=[0.1400294019826 | 0.01150613460843602 0.13948538850454 | 0.01186756252314104 0.011586821622766 0.14019826243527] xmatrix=[0.07713512204969997 | 0.03598665793864699 0.07758663659999201 | 0.034292230637717 0.03747113263734099 0.076996789570493]
new Reactor.kr_3_1502 phases=1 bus1=m1009763.2 bus2=l2766730.2 rmatrix=[0.04168983509262] xmatrix=[0.02326541046192]
new Reactor.kr_4_1559 phases=1 bus1=l2673322.2 bus2=l2859391.2 rmatrix=[0.05541731098199999] xmatrix=[0.04426101573409999]
new Reactor.kr_5_6 phases=1 bus1=m1069148.3 bus2=l2673309.3 rmatrix=[0.1795806244127999] xmatrix=[0.1002166818048]
new Reactor.kr_5_449 phases=1 bus1=m1069148.3 bus2=l2724120.3 rmatrix=[0.1122262060761501] xmatrix=[0.06262890575163625]
new Reactor.kr_5_1116 phases=1 bus1=m1069148.3 bus2=l2785518.3 rmatrix=[0.04609063558943999] xmatrix=[0.02572131919104]
new Reactor.kr_7_8 phases=1 bus1=m1069588.2 bus2=l2804270.2 rmatrix=[0.01916872941906] xmatrix=[0.01069729244496]
new Reactor.kr_7_458 phases=1 bus1=m1069588.2 bus2=m1069590.2 rmatrix=[0.1849475077943999] xmatrix=[0.1032117223103999]
new Reactor.kr_7_1588 phases=1 bus1=m1069588.2 bus2=l3082983.2 rmatrix=[0.03870573164405999] xmatrix=[0.02160010304495999]
new Reactor.kr_8_1103 phases=1 bus1=l2804270.2 bus2=l3104145.2 rmatrix=[0.14888837029716] xmatrix=[0.08308857639455998]
new Reactor.kr_9_10 phases=1 bus1=m3036164.2 bus2=l2935553.2 rmatrix=[0.07996775139444] xmatrix=[0.04462676707103999]
new Reactor.kr_9_565 phases=1 bus1=m3036164.2 bus2=l3048207.2 rmatrix=[0.004892417035740001] xmatrix=[0.002730260031839998]
new Reactor.kr_9_992 phases=1 bus1=m3036164.2 bus2=l3085397.2 rmatrix=[0.2827272711822001] xmatrix=[0.1577786527152001]
new Reactor.kr_10_271 phases=1 bus1=l2935553.2 bus2=m1026987.2 rmatrix=[0.2197593123345001] xmatrix=[0.12216929113665]
new Reactor.kr_11_723 phases=1 bus1=l2748840.2 bus2=m1209750.2 rmatrix=[0.2375990468938195] xmatrix=[0.189766970247421]
new Reactor.kr_12_13 phases=3 bus1=l3085398.1.2.3 bus2=m1026891.1.2.3 rmatrix=[0.1442813488532 | 0.01185551461255202 0.14372081658428 | 0.012227917167362 0.01193865166161199 0.14445533669814] xmatrix=[0.07947730473539996 | 0.03707938100565399 0.07994252937694399 | 0.03533350297539399 0.03860893129176201 0.079334771835826]
new Reactor.kr_12_644 phases=3 bus1=l3085398.1.2.3 bus2=m1026907.1.2.3 rmatrix=[0.09441200087440003 | 0.007757779261584009 0.09404521075576 | 0.008001464745603997 0.007812180854104006 0.09452585162988] xmatrix=[0.05200680076680003 | 0.024263278516268 0.052311225348448 | 0.02312084507334799 0.02526415565040399 0.05191353288189199]
new Reactor.kr_13_264 phases=1 bus1=m1026891.3 bus2=l3122817.3 rmatrix=[0.0231575886736411] xmatrix=[0.01292331343379954]
new Reactor.kr_13_1091 phases=3 bus1=m1026891.1.2.3 bus2=l3160102.1.2.3 rmatrix=[0.1469153210648 | 0.01207194657892798 0.14634455582792 | 0.01245114764226799 0.01215660136176797 0.14709248519796] xmatrix=[0.08092822693560002 | 0.03775629496555601 0.08140194462761606 | 0.03597854452591601 0.03931376842386802 0.08078309198316405]
new Reactor.kr_14_15 phases=3 bus1=l3216367.1.2.3 bus2=m1069468.1.2.3 rmatrix=[0.02732487293340001 | 0.005685146403180002 0.02704077893317999 | 0.00587397733012 0.005727278812760001 0.02741323108773998] xmatrix=[0.03596954201854 | 0.01606650596878 0.03632433908095999 | 0.0151376910043 0.01678486561946 0.03586009698599999]
new Reactor.kr_14_220 phases=3 bus1=l3216367.1.2.3 bus2=l2991939.1.2.3 rmatrix=[0.06196020323283002 | 0.01289128873199102 0.061316009130491 | 0.01331947014159402 0.01298682559566202 0.06216055875556301] xmatrix=[0.08156232378802304 | 0.03643142193171105 0.08236683981075202 | 0.03432529817753504 0.03806033014507704 0.08131415295570003]
new Reactor.kr_15_21 phases=3 bus1=m1069468.1.2.3 bus2=m1069464.1.2.3 rmatrix=[0.04832446723587003 | 0.01005427076499902 0.04782204253149899 | 0.010388221227066 0.01012878259351802 0.04848073002050697] xmatrix=[0.06361270037744701 | 0.02841386831607901 0.06424016455852798 | 0.026771244453615 0.02968429864845301 0.06341914511729997]
new Reactor.kr_15_80 phases=1 bus1=m1069468.1 bus2=m1069469.1 rmatrix=[0.02606494747703461] xmatrix=[0.01454579277047023]
new Reactor.kr_16_356 phases=3 bus1=m1047592.1.2.3 bus2=m3763619.1.2.3 rmatrix=[0.02649512883969 | 0.005512511871212994 0.02621966160671299 | 0.005695608778941993 0.005553364892665997 0.02658080392000899] xmatrix=[0.03487729485178899 | 0.01557863221117299 0.035221318185536 | 0.01467802154000499 0.016275178231511 0.03477117321509997]
new Reactor.kr_16_602 phases=3 bus1=m1047592.1.2.3 bus2=l3103822.1.2.3 rmatrix=[0.1454463937469559 | 0.03026122156728533 0.1439342019857713 | 0.03126634159002446 0.03048548639676978 0.1459167115926894] xmatrix=[0.1914607359245373 | 0.08551971626706087 0.1933492699940421 | 0.0805757669555166 0.08934344204742617 0.1908781756876372]
new Reactor.kr_16_1641 phases=1 bus1=m1047592.3 bus2=l2785521.3 rmatrix=[0.09840071374538226] xmatrix=[0.05491345788313419]
new Reactor.kr_17_443 phases=1 bus1=m1047339.1 bus2=l3122826.1 rmatrix=[0.2065657503471344] xmatrix=[0.1090787800884468]
new Reactor.kr_17_862 phases=3 bus1=m1047339.1.2.3 bus2=l2860491.1.2.3 rmatrix=[0.1395165524892 | 0.01146399406351204 0.1389745314286799 | 0.01182409826962201 0.01154438556637204 0.13968479450034] xmatrix=[0.07685261917739997 | 0.035854858909074 0.07730248008206395 | 0.03416663734901399 0.037333896806022 0.07671479333280597]
new Reactor.kr_17_1102 phases=3 bus1=m1047339.1.2.3 bus2=l2991922.1.2.3 rmatrix=[0.11842027984072 | 0.00998808943267201 0.11794731791232 | 0.010301832879832 0.01005813112283201 0.11856686193456] xmatrix=[0.064389181348232 | 0.031238810435144 0.06478105377348801 | 0.029767934941784 0.03252743311823201 0.06426909956396797]
new Reactor.kr_18_19 phases=3 bus1=m1026915.1.2.3 bus2=m1026920.1.2.3 rmatrix=[0.06887790340300015 | 0.005762549580900119 0.04608471157199993 | 0.005945868897300111 0.005803477823999943 0.04644661200499994] xmatrix=[0.03778166996730004 | 0.01757868041145006 0.03814107876074996 | 0.01674291915190006 0.01830681101174996 0.03784412434224996]
new Reactor.kr_18_644 phases=3 bus1=m1026915.1.2.3 bus2=m1026907.1.2.3 rmatrix=[0.1248228603649602 | 0.01044308676868817 0.08351626912703987 | 0.01077530421873615 0.01051725831167988 0.08417211730159989] xmatrix=[0.06846921700113606 | 0.03185667771506406 0.06912054974243988 | 0.03034208296340805 0.0331762205547599 0.06858239892651991]
new Reactor.kr_18_1582 phases=1 bus1=m1026915.2 bus2=l3197634.2 rmatrix=[0.01554525899617614] xmatrix=[0.01241577660286977]
new Reactor.kr_19_605 phases=3 bus1=m1026920.1.2.3 bus2=m1026926.1.2.3 rmatrix=[0.1583756773776804 | 0.01325022464690421 0.1059657314083198 | 0.01367174329768822 0.01334433375743987 0.1067978738427998] xmatrix=[0.0868739795768881 | 0.04041986297521211 0.08770039281401992 | 0.03849813991066411 0.04209410349857991 0.08701758519565995]
new Reactor.kr_19_1021 phases=1 bus1=m1026920.2 bus2=l2729408.2 rmatrix=[0.02720066996429999] xmatrix=[0.02172478707346499]
new Reactor.kr_20_329 phases=1 bus1=l3254207.1 bus2=e182722.1 rmatrix=[0.06338233904791232] xmatrix=[0.03537111943409459]
new Reactor.kr_20_1014 phases=1 bus1=l3254207.1 bus2=m1069390.1 rmatrix=[0.11871620696442] xmatrix=[0.06625071261071999]
new Reactor.kr_21_713 phases=3 bus1=m1069464.1.2.3 bus2=m1069461.1.2.3 rmatrix=[0.05309189882451001 | 0.011046170951127 0.052539907605627 | 0.011413067166618 0.01112803371521398 0.05326357765361102] xmatrix=[0.06988838668223102 | 0.03121702748396699 0.07057775309894397 | 0.02941235120089499 0.03261279162846898 0.06967573630289997]
new Reactor.kr_21_750 phases=1 bus1=m1069464.2 bus2=l3216342.2 rmatrix=[0.05990007898094665] xmatrix=[0.04784133868889773]
new Reactor.kr_22_23 phases=1 bus1=l2729406.3 bus2=l2897768.3 rmatrix=[0.3261778990626] xmatrix=[0.1820266904016]
new Reactor.kr_22_303 phases=1 bus1=l2729406.3 bus2=m1089177.3 rmatrix=[0.2306675679204] xmatrix=[0.1287262383264]
new Reactor.kr_24_25 phases=1 bus1=l3649301.1 bus2=l3649302.1 rmatrix=[0.07077279578309997] xmatrix=[0.05652522239340497]
new Reactor.kr_24_385 phases=1 bus1=l3649301.1 bus2=l3649300.1 rmatrix=[0.06865623001170001] xmatrix=[0.054834751505335]
new Reactor.kr_25_690 phases=1 bus1=l3649302.1 bus2=l3649304.1 rmatrix=[0.07043621127929998] xmatrix=[0.05625639715171499]
new Reactor.kr_26_666 phases=1 bus1=m1089113.2 bus2=m1089119.2 rmatrix=[0.290383218631566] xmatrix=[0.1620511334342963]
new Reactor.kr_26_702 phases=1 bus1=m1089113.2 bus2=m1089103.2 rmatrix=[0.7387511725931999] xmatrix=[0.4122671442912001]
new Reactor.kr_26_1346 phases=1 bus1=m1089113.2 bus2=l2691946.2 rmatrix=[0.08530995890610001] xmatrix=[0.06813584720205498]
new Reactor.kr_27_462 phases=1 bus1=m1047312.1 bus2=m1047314.1 rmatrix=[0.01316530249846093] xmatrix=[0.007255419481896999]
new Reactor.kr_27_791 phases=3 bus1=m1047312.1.2.3 bus2=l3216370.1.2.3 rmatrix=[0.170111004869 | 0.01423204034070002 0.169429051675 | 0.01468479269790001 0.01433312275199992 0.170322854234] xmatrix=[0.09331117130789997 | 0.04341489565334999 0.09387257212514998 | 0.04135077667369997 0.04521319412025 0.09313916979964998]
new Reactor.kr_27_1303 phases=3 bus1=m1047312.1.2.3 bus2=d6049825-1_int.1.2.3 rmatrix=[0.0757003224177661 | 0.006333335351038338 0.07539684953792979 | 0.00653481261208913 0.006378317574445241 0.07579459653789049] xmatrix=[0.04152397887165626 | 0.0193198646979884 0.04177380529065514 | 0.01840132052866416 0.02012011729397335 0.04144743726679852]
new Reactor.kr_28_797 phases=3 bus1=l2822871.1.2.3 bus2=d5502543-2_int.1.2.3 rmatrix=[0.1000268295055968 | 0.02081133803724241 0.09898686045746632 | 0.02150258219565305 0.02096557010458823 0.1003502778966269] xmatrix=[0.1316719492135672 | 0.05881387502373116 0.1329707375165514 | 0.0554138073922265 0.06144353916256528 0.1312713091311127]
new Reactor.kr_28_920 phases=3 bus1=l2822871.1.2.3 bus2=m1026851.1.2.3 rmatrix=[0.09286597116651597 | 0.01932146736101045 0.09190045285354244 | 0.0199632257831163 0.0194646580469181 0.09316626408700517] xmatrix=[0.1222456360312347 | 0.05460342627864315 0.1234514448886406 | 0.05144676736698558 0.0570448343998616 0.1218736775188531]
new Reactor.kr_29_359 phases=1 bus1=l2973163.2 bus2=l2763072.2 rmatrix=[0.4388936835542675] xmatrix=[0.2442518916134176]
new Reactor.kr_29_1201 phases=1 bus1=l2973163.2 bus2=m1026309.2 rmatrix=[0.1438242034811399] xmatrix=[0.08026246975823995]
new Reactor.kr_30_31 phases=1 bus1=l3728038.1 bus2=l3728039.1 rmatrix=[0.0887838230745] xmatrix=[0.070910372957475]
new Reactor.kr_30_1132 phases=1 bus1=l3728038.1 bus2=m3949154.1 rmatrix=[0.004249622619000001] xmatrix=[0.00339411296345]
new Reactor.kr_31_1048 phases=1 bus1=l3728039.1 bus2=l3728040.1 rmatrix=[0.0677281945302] xmatrix=[0.05409354280501]
new Reactor.kr_32_33 phases=1 bus1=m1069567.2 bus2=m1069582.2 rmatrix=[0.256148290164] xmatrix=[0.142945998624]
new Reactor.kr_32_131 phases=1 bus1=m1069567.2 bus2=m1069560.2 rmatrix=[0.13636457955588] xmatrix=[0.07609955541408001]
new Reactor.kr_32_1589 phases=1 bus1=m1069567.2 bus2=l2691966.2 rmatrix=[0.13740058786896] xmatrix=[0.07667770974336001]
new Reactor.kr_33_670 phases=1 bus1=m1069582.2 bus2=l2973171.2 rmatrix=[0.02943283936950001] xmatrix=[0.023507588934725]
new Reactor.kr_33_852 phases=1 bus1=m1069582.2 bus2=l3235273.2 rmatrix=[0.3203963557182075] xmatrix=[0.1788002517290526]
new Reactor.kr_33_895 phases=1 bus1=m1069582.2 bus2=d6231996-1_int.2 rmatrix=[0.04133238561426002] xmatrix=[0.02306593236816]
new Reactor.kr_34_732 phases=1 bus1=l3216351.1 bus2=m1026690.1 rmatrix=[0.03433174244597879] xmatrix=[0.01915915662628979]
new Reactor.kr_34_773 phases=1 bus1=l3216351.1 bus2=l2879081.1 rmatrix=[0.05308296573761998] xmatrix=[0.02962345578191999]
new Reactor.kr_35_36 phases=1 bus1=l2952007.3 bus2=l2861158.3 rmatrix=[0.2119223281968] xmatrix=[0.1182652783487999]
new Reactor.kr_35_1503 phases=1 bus1=l2952007.3 bus2=m1166407.3 rmatrix=[0.2520291624552] xmatrix=[0.1406472800831999]
new Reactor.kr_37_683 phases=1 bus1=m1026726.2 bus2=l2916610.2 rmatrix=[0.1103804947347] xmatrix=[0.06133734784590099]
new Reactor.kr_37_772 phases=3 bus1=m1026726.1.2.3 bus2=l3216368.1.2.3 rmatrix=[0.07569544447754481 | 0.00621985068688843 0.07540136808110678 | 0.006415227130702563 0.006263467523072464 0.07578672507214257] xmatrix=[0.04169679567137154 | 0.01945324359456831 0.04194087008948248 | 0.01853729004902191 0.02025570343636971 0.04162201753109455]
new Reactor.kr_37_1212 phases=3 bus1=m1026726.1.2.3 bus2=l2814529.1.2.3 rmatrix=[0.0447801438142803 | 0.005441744435889287 0.04450825249670985 | 0.005622490818326288 0.005482073002497853 0.04486483776181984] xmatrix=[0.03502078900134615 | 0.01537863992576916 0.03536039590033693 | 0.01448959093626516 0.01606624396528293 0.03491602971202892]
new Reactor.kr_38_969 phases=3 bus1=l2730106.1.2.3 bus2=m1108490.1.2.3 rmatrix=[0.01904623942561491 | 0.007755576718608254 0.01866639949064725 | 0.00800859173202562 0.007811723903261623 0.01916467048455185] xmatrix=[0.04909168413444322 | 0.02352468277789502 0.04999137928143003 | 0.02174440791840293 0.02470610136191483 0.04881285270252651]
new Reactor.kr_38_1359 phases=3 bus1=l2730106.1.2.3 bus2=m1108484.1.2.3 rmatrix=[0.02804725425679001 | 0.01142076540091 0.02748790671394 | 0.01179335214858 0.01150344704327 0.02822165435418003] xmatrix=[0.07229180070334001 | 0.03464215394909997 0.07361668053788996 | 0.03202054343210998 0.03638189619518998 0.07188119701961002]
new Reactor.kr_39_40 phases=1 bus1=m1026658.1 bus2=l3172805.1 rmatrix=[0.119727368028] xmatrix=[0.09562454089139996]
new Reactor.kr_39_945 phases=3 bus1=m1026658.1.2.3 bus2=m1026655.1.2.3 rmatrix=[0.11710218379794 | 0.009876915390744005 0.11663448624864 | 0.01018716666581401 0.009946177470564015 0.11724713433612] xmatrix=[0.06367248717011402 | 0.030891101812338 0.06405999779607599 | 0.02943659813611801 0.03216538127261401 0.063553741975536]
new Reactor.kr_39_1112 phases=3 bus1=m1026658.1.2.3 bus2=l2673319.1.2.3 rmatrix=[0.05459021593080003 | 0.00460437992207999 0.05437218660479998 | 0.004749011589479995 0.004636668234479993 0.05465778837839999] xmatrix=[0.02968257901548 | 0.01440068719116 0.02986322713032 | 0.01372263263075999 0.01499472556547999 0.02962722286751999]
new Reactor.kr_41_480 phases=1 bus1=l3048962.1 bus2=m1142865.1 rmatrix=[0.03857047448698098] xmatrix=[0.03219822107518271]
new Reactor.kr_42_291 phases=3 bus1=l2991914.1.2.3 bus2=m1047507.1.2.3 rmatrix=[0.1928999662509455 | 0.01585047798665125 0.1921505509256802 | 0.01634836936106557 0.01596162981255692 0.1931325829455176] xmatrix=[0.1062588462855703 | 0.04957405365963324 0.1068808381289234 | 0.04723986558081422 0.05161901784827803 0.1060682839762086]
new Reactor.kr_42_638 phases=3 bus1=l2991914.1.2.3 bus2=l2841635.1.2.3 rmatrix=[0.1000216265000395 | 0.00821871891853799 0.09963304301739115 | 0.008476883327124582 0.008276352861621147 0.1001422418637864] xmatrix=[0.05509686031213196 | 0.02570491630034227 0.0554193727246611 | 0.02449460352911495 0.02676526199125691 0.05499805078483039]
new Reactor.kr_43_619 phases=1 bus1=l2973154.1 bus2=l2879069.1 rmatrix=[0.10732834982376] xmatrix=[0.05989561022016]
new Reactor.kr_43_818 phases=1 bus1=l2973154.1 bus2=m1047755.1 rmatrix=[0.1382778700225256] xmatrix=[0.07716728567086922]
new Reactor.kr_44_45 phases=1 bus1=l3010565.3 bus2=l2897775.3 rmatrix=[0.158048974908] xmatrix=[0.1262314616354]
new Reactor.kr_44_997 phases=1 bus1=l3010565.3 bus2=l2785524.3 rmatrix=[0.2768721371413942] xmatrix=[0.154511141455487]
new Reactor.kr_46_169 phases=1 bus1=m1125955.3 bus2=m1125952.3 rmatrix=[0.06723313563490199] xmatrix=[0.03690534641881039]
new Reactor.kr_46_568 phases=1 bus1=m1125955.3 bus2=l2936211.3 rmatrix=[0.07300924155388445] xmatrix=[0.04007594360510069]
new Reactor.kr_46_1661 phases=1 bus1=m1125955.3 bus2=l3236004.3 rmatrix=[0.1843934643605999] xmatrix=[0.1012165297539]
new Reactor.kr_47_48 phases=1 bus1=m1069640.2 bus2=l2804269.2 rmatrix=[0.1693835359398] xmatrix=[0.09452609923680004]
new Reactor.kr_47_477 phases=1 bus1=m1069640.2 bus2=m1069629.2 rmatrix=[0.2450064589985999] xmatrix=[0.1367281933775999]
new Reactor.kr_47_1612 phases=1 bus1=m1069640.2 bus2=l3160113.2 rmatrix=[0.1056564408717] xmatrix=[0.08438629209833498]
new Reactor.kr_48_185 phases=1 bus1=l2804269.2 bus2=l2989564.2 rmatrix=[0.10395037639116] xmatrix=[0.05801049989855996]
new Reactor.kr_49_150 phases=3 bus1=m1026702.1.2.3 bus2=l2729414.1.2.3 rmatrix=[0.05645867276952037 | 0.006860935276926361 0.05611587300113986 | 0.007088819780884356 0.006911781414331822 0.05656545464787983] xmatrix=[0.04415410710956418 | 0.01938934369684618 0.0445822824825579 | 0.01826843336251018 0.02025627283452192 0.04402202690768588]
new Reactor.kr_49_535 phases=3 bus1=m1026702.1.2.3 bus2=m1026744.1.2.3 rmatrix=[0.4942772365089036 | 0.04061447051567398 0.492356972292018 | 0.04189024238551146 0.04089928053867514 0.494873282007212] xmatrix=[0.272272385300987 | 0.1270260770398338 0.273866146562583 | 0.1210450709587242 0.1322659904249065 0.2717840983958021]
new Reactor.kr_49_1461 phases=3 bus1=m1026702.1.2.3 bus2=m1026695.1.2.3 rmatrix=[0.2551714026380025 | 0.02134846988301983 0.2541484532353738 | 0.02202761143907633 0.02150009641965454 0.2554891827899337] xmatrix=[0.1399694442637298 | 0.0651235927356371 0.1408115616788004 | 0.06202735493286313 0.06782109213195477 0.1397114370859726]
new Reactor.kr_50_373 phases=1 bus1=l2783231.2 bus2=l3254227.2 rmatrix=[0.2482418919191999] xmatrix=[0.1362639555948]
new Reactor.kr_50_479 phases=1 bus1=l2783231.2 bus2=m1069533.2 rmatrix=[0.1655219423667913] xmatrix=[0.09085764958361213]
new Reactor.kr_51_52 phases=1 bus1=l2748143.1 bus2=l3251854.1 rmatrix=[0.07525703633940001] xmatrix=[0.06010672135647001]
new Reactor.kr_51_508 phases=1 bus1=l2748143.1 bus2=l3197652.1 rmatrix=[0.0342600873525] xmatrix=[0.027363043036375]
new Reactor.kr_53_726 phases=1 bus1=m1069610.2 bus2=l3102793.2 rmatrix=[0.1334098683650671] xmatrix=[0.1065525597850501]
new Reactor.kr_53_1131 phases=1 bus1=m1069610.2 bus2=l2991929.2 rmatrix=[0.05141425430609999] xmatrix=[0.04106383147205499]
new Reactor.kr_53_1157 phases=1 bus1=m1069610.2 bus2=m1069607.2 rmatrix=[0.08178637221684987] xmatrix=[0.0510179827278284]
new Reactor.kr_54_55 phases=3 bus1=m1069424.1.2.3 bus2=l2935549.1.2.3 rmatrix=[0.05855064008534996 | 0.01218190334119498 0.05794189487369499 | 0.01258652266612998 0.01227218297599 0.058739970389135] xmatrix=[0.07707408974583499 | 0.034426663600595 0.07783433463903999 | 0.03243643620507501 0.03596593580366501 0.07683957532649999]
new Reactor.kr_54_74 phases=3 bus1=m1069424.1.2.3 bus2=m1069428.1.2.3 rmatrix=[0.05066289823518002 | 0.01054079901408599 0.05013616109508603 | 0.01089090940832398 0.01061891648545202 0.05082672260839801] xmatrix=[0.06669093215155793 | 0.02978882130120595 0.06734875945459194 | 0.02806671052910995 0.03112072802104191 0.06648801071219997]
new Reactor.kr_54_376 phases=1 bus1=m1069424.1 bus2=l2822861.1 rmatrix=[0.1263861239220407] xmatrix=[0.1009427946386601]
new Reactor.kr_55_203 phases=3 bus1=l2935549.1.2.3 bus2=m1069420.1.2.3 rmatrix=[0.06345835983585002 | 0.01320299154004501 0.062798589547545 | 0.01364152609203001 0.01330083842169 0.06366355982218504] xmatrix=[0.08353444665988502 | 0.03731230954144502 0.08435841534624003 | 0.03515526111232502 0.03898060367461503 0.08328027522149997]
new Reactor.kr_56_88 phases=1 bus1=l3235242.3 bus2=l3141393.3 rmatrix=[0.2809711960004706] xmatrix=[0.2244076959049978]
new Reactor.kr_56_909 phases=1 bus1=l3235242.3 bus2=m1089213.3 rmatrix=[0.07840228984812045] xmatrix=[0.06261879056559966]
new Reactor.kr_57_67 phases=3 bus1=m1026795.1.2.3 bus2=m1026783.1.2.3 rmatrix=[0.1810646858121642 | 0.01514846082501807 0.1803388207246393 | 0.01563036652217598 0.01525605207806802 0.1812901764532674] xmatrix=[0.09931960688611094 | 0.04621044027020777 0.09991715709267607 | 0.04401340987891823 0.04812453360883692 0.09913652998590064]
new Reactor.kr_57_938 phases=1 bus1=m1026795.3 bus2=l2822870.3 rmatrix=[0.03289499007737881] xmatrix=[0.02627275933213578]
new Reactor.kr_57_1585 phases=3 bus1=m1026795.1.2.3 bus2=l3254217.1.2.3 rmatrix=[0.2237652832945814 | 0.02114118368923099 0.2227428938877111 | 0.0218206022422805 0.02129282591526634 0.2240830987175608] xmatrix=[0.1394450943849636 | 0.06355621649970927 0.140471757563858 | 0.06030584594663547 0.06626115115036744 0.139129437549161]
new Reactor.kr_58_701 phases=3 bus1=l3030199.1.2.3 bus2=l2730163.1.2.3 rmatrix=[0.02502295118120565 | 0.01018927743378512 0.02452391743812204 | 0.01052168858278358 0.01026304361047239 0.02517854591795121] xmatrix=[0.06449665934952663 | 0.03090673049946511 0.06567867891982428 | 0.02856780521790709 0.03245887834908616 0.06413033058763015]
new Reactor.kr_58_1531 phases=3 bus1=l3030199.1.2.3 bus2=l2955074.1.2.3 rmatrix=[0.02407476767110801 | 0.009803179702932017 0.02359464359128802 | 0.01012299494421602 0.009874150690404027 0.02422446652533602] xmatrix=[0.06205271612416798 | 0.02973559551731999 0.06318994595482801 | 0.02748529808917202 0.03122892851878803 0.06170026849417202]
new Reactor.kr_59_60 phases=1 bus1=m1069189.3 bus2=l2860487.3 rmatrix=[0.14212131110278] xmatrix=[0.07801266690107]
new Reactor.kr_59_347 phases=3 bus1=m1069189.1.2.3 bus2=m1069175.1.2.3 rmatrix=[0.1471894561381702 | 0.01247951036094447 0.1465964632441651 | 0.01287297283240689 0.01256735089808001 0.1473733656478379] xmatrix=[0.07993152346096151 | 0.0387500448152501 0.08042191779827168 | 0.03692040006086909 0.0403504067368774 0.07978125896603327]
new Reactor.kr_59_364 phases=3 bus1=m1069189.1.2.3 bus2=m1089112.1.2.3 rmatrix=[0.1833032236214857 | 0.01574096962053181 0.1825489674362583 | 0.01624172432188904 0.01585276913905023 0.1835375339848913] xmatrix=[0.09923434265244137 | 0.0480178907944085 0.09985526511990594 | 0.04573492693079144 0.05000685095710201 0.09904410498129433]
new Reactor.kr_61_391 phases=1 bus1=l3102286.2 bus2=l3233413.2 rmatrix=[0.1474655284216703] xmatrix=[0.08323536877487314]
new Reactor.kr_62_63 phases=3 bus1=f739845.1.2.3 bus2=293471.1.2.3 rmatrix=[0.05131003199999999 | 0.004216115519999997 0.05111069279999998 | 0.004348551119999994 0.004245681120000002 0.05137190639999999] xmatrix=[0.02826410399999999 | 0.01318634904 0.02842954944 | 0.01256547144 0.01373029511999999 0.02821341575999998]
new Reactor.kr_62_1604 phases=3 bus1=f739845.1.2.3 bus2=d5686080-1_int.1.2.3 rmatrix=[0.0009999999999999994 | 0 0.0009999999999999994 | 0 0 0.0009999999999999994] xmatrix=[0.0009999999999999996 | -0 0.0009999999999999996 | -0 -0 0.0009999999999999996]
new Reactor.kr_64_540 phases=1 bus1=l3198355.2 bus2=l2711234.2 rmatrix=[0.1941597704544001] xmatrix=[0.1065774117936002]
new Reactor.kr_65_66 phases=1 bus1=l2860504.1 bus2=l2860493.1 rmatrix=[0.2338662768749999] xmatrix=[0.1867856591562499]
new Reactor.kr_65_1101 phases=1 bus1=l2860504.1 bus2=m1026713.1 rmatrix=[0.0149228785539] xmatrix=[0.011918690220945]
new Reactor.kr_66_627 phases=1 bus1=l2860493.1 bus2=l3085403.1 rmatrix=[0.0983242249002] xmatrix=[0.07853015579851]
new Reactor.kr_67_760 phases=3 bus1=m1026783.1.2.3 bus2=m1026769.1.2.3 rmatrix=[0.4119051867704132 | 0.03446132692947173 0.4102539118382327 | 0.03555761715064266 0.03470608702451407 0.4124181569001151] xmatrix=[0.2259428104855957 | 0.1051244189344548 0.2273021814391447 | 0.100126381242785 0.1094788014455922 0.2255263279547687]
new Reactor.kr_67_1059 phases=1 bus1=m1026783.1 bus2=l3197641.1 rmatrix=[0.1648397494648689] xmatrix=[0.1316551576800842]
new Reactor.kr_67_1296 phases=1 bus1=m1026783.3 bus2=l2766724.3 rmatrix=[0.07656239717049118] xmatrix=[0.04272637675534853]
new Reactor.kr_68_397 phases=3 bus1=m1026700.1.2.3 bus2=m1026706.1.2.3 rmatrix=[0.1441757190154 | 0.01206220991261998 0.143597737055 | 0.01244593521414 0.01214788120319995 0.1443552696243999] xmatrix=[0.07908486124013996 | 0.03679581930410997 0.07956067035398992 | 0.03504639787041999 0.03831994747365 0.07893908324569004]
new Reactor.kr_68_488 phases=3 bus1=m1026700.1.2.3 bus2=l2851933.1.2.3 rmatrix=[0.1640715567176032 | 0.013481664401327 0.1634341396036765 | 0.01390514717811915 0.0135762048664753 0.1642694094363807] xmatrix=[0.09037873129344411 | 0.04216533740610848 0.09090776802772706 | 0.04017998778318374 0.04390468691067394 0.09021664802732229]
new Reactor.kr_68_761 phases=1 bus1=m1026700.2 bus2=l3189189.2 rmatrix=[0.1063134420099651] xmatrix=[0.05932923148057853]
new Reactor.kr_68_988 phases=3 bus1=m1026700.1.2.3 bus2=l2973167.1.2.3 rmatrix=[0.161745070418043 | 0.01353211895929076 0.161096655187264 | 0.01396260528410058 0.01362823021611811 0.1619465011898856] xmatrix=[0.08872219717614246 | 0.04127978288433511 0.08925598872656805 | 0.03931717578908416 0.04298964232965267 0.0885586545898262]
new Reactor.kr_68_1255 phases=1 bus1=m1026700.3 bus2=l3189188.3 rmatrix=[0.04519524316828991] xmatrix=[0.02411926167438805]
new Reactor.kr_69_70 phases=1 bus1=m1089173.3 bus2=l2935551.3 rmatrix=[0.09943044899064001] xmatrix=[0.05457896804315999]
new Reactor.kr_69_474 phases=1 bus1=m1089173.3 bus2=l2879062.3 rmatrix=[0.15124477879928] xmatrix=[0.084080475215096]
new Reactor.kr_69_1425 phases=1 bus1=m1089173.3 bus2=l2804282.3 rmatrix=[1.084590499545551] xmatrix=[0.6010080000806021]
new Reactor.kr_69_1648 phases=1 bus1=m1089173.3 bus2=l2673307.3 rmatrix=[0.1373841398728801] xmatrix=[0.07541235764172]
new Reactor.kr_70_1676 phases=1 bus1=l2935551.3 bus2=d5746546-1_int.3 rmatrix=[0.05234811072093999] xmatrix=[0.02873471749511]
new Reactor.kr_71_75 phases=1 bus1=m1026344.1 bus2=l2991919.1 rmatrix=[0.2106843845028] xmatrix=[0.11610850475463]
new Reactor.kr_71_338 phases=1 bus1=m1026344.1 bus2=l3010570.1 rmatrix=[0.3977503692751028] xmatrix=[0.3176775616554362]
new Reactor.kr_71_827 phases=1 bus1=m1026344.1 bus2=m1026343.1 rmatrix=[0.01535287526967999] xmatrix=[0.008460994370577998]
new Reactor.kr_72_73 phases=3 bus1=l2879070.1.2.3 bus2=l3216345.1.2.3 rmatrix=[0.05901625868732997 | 0.01227877881164099 0.05840267248514096 | 0.01268661583469399 0.01236977638696201 0.05920709462301297] xmatrix=[0.07768701438447297 | 0.03470043848936098 0.07845330505555194 | 0.03269438399278497 0.03625195161362701 0.07745063501069994]
new Reactor.kr_72_768 phases=3 bus1=l2879070.1.2.3 bus2=m1026830.1.2.3 rmatrix=[0.0346793977719 | 0.007215310899629991 0.03431883950462999 | 0.007454965914419986 0.007268783301659988 0.03479153763758999] xmatrix=[0.04565079070539002 | 0.02039082679923001 0.04610108185536 | 0.01921202008755001 0.02130253387761001 0.04551188840099998]
new Reactor.kr_73_603 phases=3 bus1=l3216345.1.2.3 bus2=m3768670.1.2.3 rmatrix=[0.05009708909771998 | 0.01042307814524397 0.04957623461924394 | 0.01076927846589597 0.01050032319160798 0.05025908386129193] xmatrix=[0.06594612006793202 | 0.02945613628172397 0.06659660067916795 | 0.02775325824293999 0.03077316811246799 0.06574546487879994]
new Reactor.kr_74_541 phases=1 bus1=m1069428.2 bus2=l2973178.2 rmatrix=[0.09289918581423297] xmatrix=[0.07419725472959302]
new Reactor.kr_74_720 phases=1 bus1=m1069428.2 bus2=l3029518.2 rmatrix=[0.04513761237231304] xmatrix=[0.03505082751325041]
new Reactor.kr_74_911 phases=3 bus1=m1069428.1.2.3 bus2=q14411.1.2.3 rmatrix=[0.02997586372095001 | 0.006236705079314995 0.02966420763181498 | 0.006443855910210006 0.006282925069830005 0.030072794162295] xmatrix=[0.03945921696619501 | 0.017625238169115 0.03984843555167999 | 0.016606311901275 0.018413291275305 0.03933915385049998]
new Reactor.kr_75_76 phases=1 bus1=l2991919.1 bus2=m1026361.1 rmatrix=[0.13913035346964] xmatrix=[0.07667496262461898]
new Reactor.kr_76_441 phases=1 bus1=m1026361.1 bus2=l3122825.1 rmatrix=[0.01906012323813] xmatrix=[0.014800807045524]
new Reactor.kr_76_986 phases=1 bus1=m1026361.1 bus2=m1026366.1 rmatrix=[0.11412862508788] xmatrix=[0.062896469711923]
new Reactor.kr_77_78 phases=3 bus1=q14412.1.2.3 bus2=m1047325.1.2.3 rmatrix=[0.05714298269879996 | 0.004695405690168008 0.05692098251651999 | 0.004842896636958024 0.004728332322708018 0.05721189101225996] xmatrix=[0.03147718180859997 | 0.014685379947786 0.03166143517089601 | 0.01399392066444601 0.01529116209655801 0.03142073130353399]
new Reactor.kr_77_861 phases=3 bus1=q14412.1.2.3 bus2=d5926308-3_int.1.2.3 rmatrix=[0.0009999999999999994 | 0 0.0009999999999999994 | 0 0 0.0009999999999999994] xmatrix=[0.0009999999999999996 | -0 0.0009999999999999996 | -0 -0 0.0009999999999999996]
new Reactor.kr_78_205 phases=1 bus1=m1047325.1 bus2=m1047326.1 rmatrix=[0.01899326761537178] xmatrix=[0.01516965190182877]
new Reactor.kr_78_468 phases=3 bus1=m1047325.1.2.3 bus2=l2897780.1.2.3 rmatrix=[0.1716021066987345 | 0.01433369622840088 0.1709160909946194 | 0.01478917380225961 0.01443538640432112 0.1718152028728666] xmatrix=[0.09416492959661127 | 0.04382294259391872 0.09473007987090087 | 0.0417412476821885 0.04563746530471699 0.09399177958096901]
new Reactor.kr_79_80 phases=1 bus1=l3048227.1 bus2=m1069469.1 rmatrix=[0.05737091086956908] xmatrix=[0.03201638452958774]
new Reactor.kr_80_1674 phases=1 bus1=m1069469.1 bus2=l3010561.1 rmatrix=[0.2082153199908439] xmatrix=[0.166298610707983]
new Reactor.kr_81_838 phases=1 bus1=l2785522.2 bus2=l2860506.2 rmatrix=[0.3487166690003084] xmatrix=[0.2785150565117005]
new Reactor.kr_82_83 phases=1 bus1=l3216338.2 bus2=l2973146.2 rmatrix=[0.0657456089328] xmatrix=[0.05251007997064001]
new Reactor.kr_82_551 phases=1 bus1=l3216338.2 bus2=m1009840.2 rmatrix=[0.15592953353094] xmatrix=[0.08701796475503995]
new Reactor.kr_84_85 phases=1 bus1=m3037452.1 bus2=l2973164.1 rmatrix=[0.11965744794276] xmatrix=[0.06677598112415999]
new Reactor.kr_84_511 phases=1 bus1=m3037452.1 bus2=l2897778.1 rmatrix=[0.00323779281384] xmatrix=[0.001784352851814]
new Reactor.kr_84_1143 phases=1 bus1=m3037452.1 bus2=m1026387.1 rmatrix=[0.194263076893] xmatrix=[0.1066341183545]
new Reactor.kr_86_87 phases=1 bus1=l3120376.1 bus2=m1026925.1 rmatrix=[0.14983122948204] xmatrix=[0.08329465041322798]
new Reactor.kr_86_455 phases=1 bus1=l3120376.1 bus2=m1026906.1 rmatrix=[0.1791814495971] xmatrix=[0.09961111749746998]
new Reactor.kr_87_259 phases=1 bus1=m1026925.1 bus2=l2916599.1 rmatrix=[0.02608543359630001] xmatrix=[0.0145572252408]
new Reactor.kr_87_694 phases=1 bus1=m1026925.1 bus2=l3235249.1 rmatrix=[0.1850221682599] xmatrix=[0.10285810826743]
new Reactor.kr_89_499 phases=1 bus1=m1026940.2 bus2=m1026948.2 rmatrix=[0.5293764898982396] xmatrix=[0.2954236428187704]
new Reactor.kr_89_1141 phases=1 bus1=m1026940.2 bus2=l2935556.2 rmatrix=[0.2315581594557677] xmatrix=[0.1849422041750206]
new Reactor.kr_89_1444 phases=1 bus1=m1026940.2 bus2=l3104124.2 rmatrix=[0.1513711955478511] xmatrix=[0.08447414136864002]
new Reactor.kr_90_91 phases=1 bus1=m1047471.2 bus2=l3216349.2 rmatrix=[0.02064998331] xmatrix=[0.0164928470905]
new Reactor.kr_90_840 phases=1 bus1=m1047471.2 bus2=l2879077.2 rmatrix=[0.1071568358856] xmatrix=[0.08558463619228]
new Reactor.kr_90_1082 phases=1 bus1=m1047471.2 bus2=l3160104.2 rmatrix=[0.125223001776] xmatrix=[0.1000138251688]
new Reactor.kr_90_1653 phases=1 bus1=m1047471.2 bus2=l2973180.2 rmatrix=[0.08547531073199999] xmatrix=[0.06826791134659999]
new Reactor.kr_92_93 phases=1 bus1=m1047401.1 bus2=l2748132.1 rmatrix=[0.09387513283043999] xmatrix=[0.05238791404703998]
new Reactor.kr_92_574 phases=1 bus1=m1047401.1 bus2=l3254216.1 rmatrix=[0.05614144083678001] xmatrix=[0.03133026700848]
new Reactor.kr_92_1155 phases=1 bus1=m1047401.1 bus2=l3091052.1 rmatrix=[0.1963512429392064] xmatrix=[0.1568229406791821]
new Reactor.kr_94_95 phases=1 bus1=l3122820.1 bus2=l3141398.1 rmatrix=[0.06667441206749998] xmatrix=[0.05325190178462498]
new Reactor.kr_94_412 phases=1 bus1=l3122820.1 bus2=l2879074.1 rmatrix=[0.0831141744669] xmatrix=[0.06638210549409498]
new Reactor.kr_96_990 phases=1 bus1=l3048968.3 bus2=m1108350.3 rmatrix=[0.4902775669859176] xmatrix=[0.2736040934259552]
new Reactor.kr_97_533 phases=1 bus1=m1069224.3 bus2=m1069218.3 rmatrix=[0.2003375494614001] xmatrix=[0.1118002819824]
new Reactor.kr_97_837 phases=1 bus1=m1069224.3 bus2=m1069226.3 rmatrix=[0.2009380843755998] xmatrix=[0.11073730300501]
new Reactor.kr_97_1446 phases=1 bus1=m1069224.3 bus2=l3235266.3 rmatrix=[0.185073010499316] xmatrix=[0.100472350989285]
new Reactor.kr_98_99 phases=1 bus1=l2766746.3 bus2=m1027073.3 rmatrix=[0.1239911989650001] xmatrix=[0.09903000183575003]
new Reactor.kr_98_1597 phases=1 bus1=l2766746.3 bus2=l2710515.3 rmatrix=[0.3637023433941301] xmatrix=[0.2346182866409775]
new Reactor.kr_99_915 phases=1 bus1=m1027073.3 bus2=m1027071.3 rmatrix=[0.1075457745621] xmatrix=[0.08589527596485501]
new Reactor.kr_99_1011 phases=1 bus1=m1027073.3 bus2=l2879089.3 rmatrix=[0.05194239409619999] xmatrix=[0.04148564918830999]
new Reactor.kr_99_1328 phases=1 bus1=m1027073.3 bus2=l3104118.3 rmatrix=[0.0916801673751] xmatrix=[0.07322364183300495]
new Reactor.kr_100_101 phases=1 bus1=m1069181.1 bus2=l2973151.1 rmatrix=[0.12632403160104] xmatrix=[0.07049633177663996]
new Reactor.kr_100_457 phases=1 bus1=m1069181.1 bus2=l3195315.1 rmatrix=[0.1409605951689] xmatrix=[0.07866440580239999]
new Reactor.kr_100_481 phases=1 bus1=m1069181.1 bus2=l2804253.1 rmatrix=[0.02063147433840001] xmatrix=[0.01647806423892]
new Reactor.kr_100_1550 phases=1 bus1=m1069181.1 bus2=l2748146.1 rmatrix=[0.1661790891017399] xmatrix=[0.09273782708783997]
new Reactor.kr_101_1512 phases=1 bus1=l2973151.1 bus2=m1069187.1 rmatrix=[0.1285522102722] xmatrix=[0.0717397881552]
new Reactor.kr_102_103 phases=1 bus1=l3179682.3 bus2=l2786274.3 rmatrix=[0.04643664211601999] xmatrix=[0.02591441143631999]
new Reactor.kr_102_140 phases=1 bus1=l3179682.3 bus2=m1108315.3 rmatrix=[0.08607022909248843] xmatrix=[0.04803231311127034]
new Reactor.kr_104_773 phases=1 bus1=l3066816.1 bus2=l2879081.1 rmatrix=[0.1662605828705539] xmatrix=[0.1327899577076472]
new Reactor.kr_104_1111 phases=1 bus1=l3066816.1 bus2=l3066817.1 rmatrix=[0.4028034146776041] xmatrix=[0.273825621959491]
new Reactor.kr_105_106 phases=3 bus1=m1108529.1.2.3 bus2=m1108532.1.2.3 rmatrix=[0.006698881389593987 | 0.002727766222625992 0.006565285323083994 | 0.002816755840187994 0.002747514127721997 0.006740535576347999] xmatrix=[0.01726636746392398 | 0.008274024910259983 0.01758280531505398 | 0.007647872426945989 0.008689549611833993 0.01716829777944599]
new Reactor.kr_105_288 phases=1 bus1=m1108529.3 bus2=m1108540.3 rmatrix=[0.493547992221134] xmatrix=[0.2754291990558751]
new Reactor.kr_105_1018 phases=3 bus1=m1108529.1.2.3 bus2=q14734.1.2.3 rmatrix=[0.01498131890677802 | 0.006100352179362004 0.014682545848908 | 0.00629936777055601 0.006144516219114003 0.01507447396047601] xmatrix=[0.03861435100798803 | 0.01850395590162001 0.03932202981079802 | 0.01710363404320201 0.01943323165765802 0.03839502883570202]
new Reactor.kr_106_612 phases=3 bus1=m1108532.1.2.3 bus2=m1108534.1.2.3 rmatrix=[0.107332098430747 | 0.04370533713629271 0.105191569946804 | 0.04513116364173747 0.04402174582744719 0.1079994981528703] xmatrix=[0.2766485032397479 | 0.132569667625333 0.2817185942993908 | 0.122537207388802 0.1392273671713421 0.2750771924019189]
new Reactor.kr_106_962 phases=1 bus1=m1108532.2 bus2=l2936213.2 rmatrix=[0.05980511036291087] xmatrix=[0.04562617442148911]
new Reactor.kr_107_108 phases=1 bus1=l2766723.1 bus2=l3122822.1 rmatrix=[0.09572045575638002] xmatrix=[0.05341771412208001]
new Reactor.kr_107_956 phases=1 bus1=l2766723.1 bus2=l2822868.1 rmatrix=[0.06602409421020002] xmatrix=[0.05273250218901]
...
